<?xml version="1.0" encoding="UTF-8"?>

<!-- generated on Fri Apr 15 03:42:16 2022 by Eclipse SUMO duarouter Version 1.8.0
<configuration xmlns:xsi="http://www.w3.org/2001/XMLSchema-instance" xsi:noNamespaceSchemaLocation="http://sumo.dlr.de/xsd/duarouterConfiguration.xsd">

    <input>
        <net-file value="fyp.net.xml"/>
        <route-files value="fyp.trips.xml"/>
    </input>

    <output>
        <output-file value="fyp.rou.xml"/>
        <alternatives-output value="fyp.rou.alt.xml"/>
    </output>

    <report>
        <ignore-errors value="true"/>
    </report>

</configuration>
-->

<routes xmlns:xsi="http://www.w3.org/2001/XMLSchema-instance" xsi:noNamespaceSchemaLocation="http://sumo.dlr.de/xsd/routes_file.xsd">
    <vehicle id="0" depart="0.00">
        <route edges="849995889#5 849995889#6 849995889#7 849995889#8 849995889#9 53436221#0 53436221#1-AddedOnRampEdge 53436221#1 53436221#3 53436221#5 928691530#0 297396114#3 297396114#4 297396114#7 297396114#9 297396114#10-AddedOnRampEdge"/>
    </vehicle>
    <vehicle id="1" depart="1.00">
        <route edges="303270059#0 849995889#4 849995889#5 849995889#6 849995889#7 849995889#8 849995889#9 53436221#0 53436221#1-AddedOnRampEdge 53436221#1 608814650#1 608814650#2 608814650#3 608814650#4 303265566#2"/>
    </vehicle>
    <vehicle id="2" depart="2.00">
        <route edges="927798096#3 927798096#4-AddedOnRampEdge 927798096#4 927798096#5 927798096#6 927798096#7 927798096#8 303270059#0 849995889#4 849995889#5 849995889#6 849995889#7 849995889#8 849995889#9"/>
    </vehicle>
    <vehicle id="3" depart="3.00">
        <route edges="927798098#6 927798098#7 927798098#8 927798098#9 927798098#10 927798098#11 927798098#12 927798098#13 927798098#14 927798098#15 927798098#16 927798098#17 303268062#0 303268062#1 932248828#7 932248828#8 124764479#0 124764479#1 54139756#0 303137276#0"/>
    </vehicle>
    <vehicle id="4" depart="4.00">
        <route edges="54139756#0 303137276#0 303137276#1 609360791#0 609360791#1 609360791#2 927798098#15 927798098#16 927798098#17 927798098#18 297396114#7 297396114#9 297396114#10-AddedOnRampEdge 297396114#10 297396114#11"/>
    </vehicle>
    <vehicle id="5" depart="5.00">
        <route edges="303265565#8 608814649#2 608814649#3 608814649#4 53436221#3 54139756#5 54139756#6-AddedOnRampEdge 54139756#6 54139756#6-AddedOffRampEdge"/>
    </vehicle>
    <vehicle id="7" depart="7.00">
        <route edges="849995889#6 849995889#7 849995889#8 849995889#9 53436221#0 53436221#1-AddedOnRampEdge 53436221#1 53436221#3 928691515#1 303265562#0 303265562#1 303265565#6 303265565#7 303265565#8 608814649#2 608814649#3 608814649#4"/>
    </vehicle>
    <vehicle id="8" depart="8.00">
        <route edges="303265566#2 303265566#4 303265566#5 609360791#0 609360791#1"/>
    </vehicle>
    <vehicle id="9" depart="9.00">
        <route edges="927798098#12 927798098#13 927798098#14 927798098#15 927798098#16 927798098#17 303268062#0 303268062#1 932248828#7 932248828#8 124764479#0"/>
    </vehicle>
    <vehicle id="10" depart="10.00">
        <route edges="927798098#11 927798098#12 927798098#13 927798098#14 927798098#15 927798098#16 927798098#17 927798098#18 297396114#7 927798096#0 927798096#1-AddedOnRampEdge 927798096#1"/>
    </vehicle>
    <vehicle id="11" depart="11.00">
        <route edges="303570986 932248828#1 932248828#2 932248828#4 932248828#6 932248828#7 932248828#8 124764479#0 124764479#1 54139756#0 54139756#1 54139756#2-AddedOnRampEdge 54139756#2 303265561 303265562#0"/>
    </vehicle>
    <vehicle id="12" depart="12.00">
        <route edges="932248828#0 932248828#1 932248828#2 932248828#4 297396114#7 297396114#9 297396114#10-AddedOnRampEdge 297396114#10 303570985"/>
    </vehicle>
    <vehicle id="13" depart="13.00">
        <route edges="303137276#1"/>
    </vehicle>
    <vehicle id="14" depart="14.00">
        <route edges="927798098#17 303268062#0 303268062#1 932248828#7 932248828#8 124764479#0 124764479#1 54139756#0 54139756#1 54139756#2-AddedOnRampEdge 54139756#2 54139756#3 54139756#5 54139756#6-AddedOnRampEdge 54139756#6 54139756#6-AddedOffRampEdge 54139756#7 54139756#9 54139756#10-AddedOnRampEdge 54139756#10 54139756#10-AddedOffRampEdge 54139756#11 610344813#0"/>
    </vehicle>
    <vehicle id="15" depart="15.00">
        <route edges="927798098#11 927798098#12 927798098#13 927798098#14 927798098#15 927798098#16 927798098#17 927798098#18 297396114#7 927798096#0 927798096#1-AddedOnRampEdge 927798096#1 927798096#2 927798096#2-AddedOffRampEdge"/>
    </vehicle>
    <vehicle id="16" depart="16.00">
        <route edges="608814649#3 608814649#4 53436221#3 53436221#5 928691530#0 297396114#3 297396114#4 297396114#7 932248828#4"/>
    </vehicle>
    <vehicle id="17" depart="17.00">
        <route edges="53436221#1-AddedOnRampEdge 53436221#1 608814650#1"/>
    </vehicle>
    <vehicle id="18" depart="18.00">
        <route edges="927798098#14 927798098#15 927798098#16 927798098#17 303268062#0 303268062#1 932248828#7 932248828#8 124764479#0 124764479#1 54139756#0 54139756#1 54139756#2-AddedOnRampEdge 54139756#2 54139756#3 54139756#5 54139756#6-AddedOnRampEdge 54139756#6 54139756#6-AddedOffRampEdge 54139756#7 54139756#9 54139756#10-AddedOnRampEdge 54139756#10 54139756#10-AddedOffRampEdge 303137030 610344813#1-AddedOnRampEdge"/>
    </vehicle>
    <vehicle id="19" depart="19.00">
        <route edges="927798098#2 927798098#3 927798098#4 927798098#5 927798098#6 927798098#7 927798098#8 927798098#9 927798098#10 927798098#11 927798098#12 927798098#13 303137273 303137278#0 303137278#1 303137278#2 54139756#2-AddedOnRampEdge 54139756#2 54139756#3 54139756#5 54139756#6-AddedOnRampEdge 54139756#6 54139756#6-AddedOffRampEdge 303265559 608814650#2 608814650#3 608814650#4"/>
    </vehicle>
    <vehicle id="20" depart="20.00">
        <route edges="927798096#1-AddedOnRampEdge 927798096#1 927798096#2 927798096#2-AddedOffRampEdge 53365945 927798098#11 927798098#12 927798098#13 927798098#14 927798098#15 927798098#16 927798098#17 303268062#0 303268062#1 932248828#7 932248828#8 928691532#0 297396114#3 297396114#4"/>
    </vehicle>
    <vehicle id="21" depart="21.00">
        <route edges="303265566#4 303265565#4 303265560#1 303265560#2 303265560#3 303265564 54139756#6-AddedOnRampEdge 54139756#6 54139756#6-AddedOffRampEdge 54139756#7 54139756#9 54139756#10-AddedOnRampEdge 54139756#10 54139756#10-AddedOffRampEdge 303137030 610344813#1-AddedOnRampEdge 610344813#1 303270079#1 927798096#10 303270062"/>
    </vehicle>
    <vehicle id="22" depart="22.00">
        <route edges="303137273 303265565#0 303265566#5"/>
    </vehicle>
    <vehicle id="24" depart="24.00">
        <route edges="849995889#4 849995889#5 849995889#6 849995889#7 849995889#8 849995889#9 53436221#0 53436221#1-AddedOnRampEdge 53436221#1"/>
    </vehicle>
    <vehicle id="25" depart="25.00">
        <route edges="53436221#1 53436221#3 928691515#1 303265562#0 303265562#1 303265565#6 303265565#7"/>
    </vehicle>
    <vehicle id="26" depart="26.00">
        <route edges="303268062#1 932248828#7 932248828#8 928691532#0 928691531#2"/>
    </vehicle>
    <vehicle id="27" depart="27.00">
        <route edges="849995889#6 849995889#7 849995889#8 849995889#9 610344813#0 610344813#1-AddedOnRampEdge 610344813#1"/>
    </vehicle>
    <vehicle id="28" depart="28.00">
        <route edges="303265563 54139756#10-AddedOnRampEdge 54139756#10 54139756#10-AddedOffRampEdge 54139756#11 53436221#0 53436221#1-AddedOnRampEdge 53436221#1 53436221#3 53436221#5 928691530#0 297396114#3 297396114#4 297396114#7 927798096#0 927798096#1-AddedOnRampEdge 927798096#1 927798096#2 927798096#2-AddedOffRampEdge"/>
    </vehicle>
    <vehicle id="29" depart="29.00">
        <route edges="303265562#1 303265560#1 303265560#2 303265560#3 303265564 54139756#6-AddedOnRampEdge 54139756#6 54139756#6-AddedOffRampEdge 54139756#7 53436221#3"/>
    </vehicle>
    <vehicle id="30" depart="30.00">
        <route edges="932248828#7 932248828#8 124764479#0 124764479#1 54139756#0 54139756#1 54139756#2-AddedOnRampEdge 54139756#2 54139756#3 54139756#5 54139756#6-AddedOnRampEdge 54139756#6 54139756#6-AddedOffRampEdge 54139756#7 54139756#9 54139756#10-AddedOnRampEdge 54139756#10 54139756#10-AddedOffRampEdge 54139756#11 849995889#11"/>
    </vehicle>
    <vehicle id="32" depart="32.00">
        <route edges="927798098#16 927798098#17 927798098#18 297396114#7 927798096#0 927798096#1-AddedOnRampEdge 927798096#1 927798096#2 927798096#2-AddedOffRampEdge 927798096#3 927798096#4-AddedOnRampEdge 927798096#4 927798096#5 927798096#6 927798096#7 927798096#8"/>
    </vehicle>
    <vehicle id="33" depart="33.00">
        <route edges="303265566#4 303265566#5 609360791#0 609360791#1 609360791#2 927798098#15 927798098#16 927798098#17 927798098#18 297396114#7 297396114#9 297396114#10-AddedOnRampEdge 297396114#10 297396114#11"/>
    </vehicle>
    <vehicle id="35" depart="35.00">
        <route edges="303265565#7 303265565#8 608814649#2 608814649#3 608814649#4 53436221#3 53436221#5 928691530#0 928691531#2"/>
    </vehicle>
    <vehicle id="37" depart="37.00">
        <route edges="849995889#7 849995889#8 849995889#9 53436221#0 53436221#1-AddedOnRampEdge 53436221#1 53436221#3 53436221#5 53436222#0 53436222#1"/>
    </vehicle>
    <vehicle id="38" depart="38.00">
        <route edges="927798098#9 927798098#10 927798098#11 927798098#12 927798098#13 303137273 303137278#0 303137278#1 303137278#2 54139756#2-AddedOnRampEdge 54139756#2 54139756#3 54139756#5 54139756#6-AddedOnRampEdge 54139756#6 54139756#6-AddedOffRampEdge 54139756#7 54139756#9 54139756#10-AddedOnRampEdge 54139756#10 54139756#10-AddedOffRampEdge 54139756#11"/>
    </vehicle>
    <vehicle id="39" depart="39.00">
        <route edges="303268062#1 932248828#7 932248828#8 928691532#0 297396114#3 297396114#4 303268054#0 303268054#1"/>
    </vehicle>
    <vehicle id="40" depart="40.00">
        <route edges="608814650#3 608814650#4 303265566#2 303265566#4 303265566#5 609360791#0 609360791#1 609360791#2 927798098#15 927798098#16 927798098#17 303268062#0 303268062#1"/>
    </vehicle>
    <vehicle id="41" depart="41.00">
        <route edges="609360791#1 609360791#2 927798098#15 927798098#16 927798098#17 927798098#18 297396114#7 927798096#0 927798096#1-AddedOnRampEdge 927798096#1 927798096#2 927798096#2-AddedOffRampEdge 927798096#3 927798096#4-AddedOnRampEdge 927798096#4 303270063 927798098#5 927798098#6 927798098#7"/>
    </vehicle>
    <vehicle id="43" depart="43.00">
        <route edges="932248828#8 124764479#0 124764479#1 54139756#0 54139756#1 54139756#2-AddedOnRampEdge 54139756#2 54139756#3 54139756#5 54139756#6-AddedOnRampEdge"/>
    </vehicle>
    <vehicle id="44" depart="44.00">
        <route edges="303137276#0 303137276#1 609360791#0 609360791#1 609360791#2 927798098#15 927798098#16 927798098#17 303268062#0 303268062#1 932248828#7 932248828#8 928691532#0 297396114#3 297396114#4"/>
    </vehicle>
    <vehicle id="46" depart="46.00">
        <route edges="927798098#1 927798098#2 927798098#3 927798098#4 927798098#5 927798098#6 927798098#7 927798098#8 927798098#9 927798098#10 927798098#11 927798098#12 927798098#13 927798098#14 927798098#15 927798098#16 927798098#17 927798098#18 54139405#0 54139405#1-AddedOnRampEdge"/>
    </vehicle>
    <vehicle id="48" depart="48.00">
        <route edges="932248828#8 124764479#0 124764479#1 54139756#0 54139756#1 54139756#2-AddedOnRampEdge 54139756#2 303265561 303265562#0 303265562#1 303265565#6 303265565#7 303265565#8 608814649#2"/>
    </vehicle>
    <vehicle id="49" depart="49.00">
        <route edges="932248828#2 927798096#0 927798096#1-AddedOnRampEdge 927798096#1 927798096#2 927798096#2-AddedOffRampEdge 927798096#3 927798096#4-AddedOnRampEdge 927798096#4 927798096#5 927798096#6 927798096#7 927798096#8 927798096#9 927798096#10 927798098#1 927798098#2"/>
    </vehicle>
    <vehicle id="50" depart="50.00">
        <route edges="124764479#1 54139756#0 303137276#0 303137276#1 609360791#0 609360791#1 609360791#2 927798098#15 927798098#16 927798098#17 927798098#18 297396114#7 927798096#0 927798096#1-AddedOnRampEdge 927798096#1 927798096#2"/>
    </vehicle>
    <vehicle id="51" depart="51.00">
        <route edges="925350659#1 53436221#0 53436221#1-AddedOnRampEdge 53436221#1 53436221#3 928691515#1 303265562#0 303265562#1 303265565#6 303265565#7 303265565#8 608814649#2 608814649#3"/>
    </vehicle>
    <vehicle id="52" depart="52.00">
        <route edges="303268062#1 932248828#7 932248828#8 124764479#0 124764479#1 54139756#0 54139756#1 54139756#2-AddedOnRampEdge 54139756#2 54139756#3 54139756#5 54139756#6-AddedOnRampEdge 54139756#6 54139756#6-AddedOffRampEdge 54139756#7 54139756#9 54139756#10-AddedOnRampEdge 54139756#10 54139756#10-AddedOffRampEdge 303137030 610344813#1-AddedOnRampEdge 610344813#1 849995889#4"/>
    </vehicle>
    <vehicle id="53" depart="53.00">
        <route edges="303137278#1 303137278#2 54139756#2-AddedOnRampEdge 54139756#2 54139756#3 53436221#5 928691530#0 928691531#2 54139756#0 54139756#1"/>
    </vehicle>
    <vehicle id="54" depart="54.00">
        <route edges="54139756#10-AddedOnRampEdge 54139756#10 54139756#10-AddedOffRampEdge 54139756#11 53436221#0 53436221#1-AddedOnRampEdge 53436221#1 53436221#3 53436221#5 928691530#0 928691532#3"/>
    </vehicle>
    <vehicle id="55" depart="55.00">
        <route edges="927798098#4 927798098#5 927798098#6 927798098#7 927798098#8 927798098#9 927798098#10 927798098#11 927798098#12 927798098#13 927798098#14 927798098#15 927798098#16 927798098#17 303268062#0 303268062#1"/>
    </vehicle>
    <vehicle id="56" depart="56.00">
        <route edges="54139756#6-AddedOffRampEdge 303265559 608814650#2 608814650#3 608814650#4 303265566#2 303265560#1 303265560#2 303265560#3 303265564"/>
    </vehicle>
    <vehicle id="57" depart="57.00">
        <route edges="927798098#9 303270073 927798096#4-AddedOnRampEdge 927798096#4 927798096#5 927798096#6 927798096#7 927798096#8 927798096#9 927798096#10 927798098#1 927798098#2 927798098#3"/>
    </vehicle>
    <vehicle id="58" depart="58.00">
        <route edges="303270063 927798098#5 927798098#6 927798098#7 927798098#8 927798098#9 303270073 927798096#4-AddedOnRampEdge 927798096#4 927798096#5 927798096#6 927798096#7 927798096#8 303270059#0 849995889#4 849995889#5 849995889#6 849995889#7 849995889#8 849995889#9 849995889#11"/>
    </vehicle>
    <vehicle id="59" depart="59.00">
        <route edges="610344813#1 303270079#1 927798096#10 927798098#1 927798098#2 927798098#3 927798098#4 927798098#5 927798098#6 927798098#7 927798098#8 927798098#9 927798098#10 927798098#11 927798098#12 927798098#13 303137273 303137278#0 303137278#1 303137278#2 54139756#2-AddedOnRampEdge 54139756#2 303265561"/>
    </vehicle>
    <vehicle id="60" depart="60.00">
        <route edges="927798096#6 927798096#7 927798096#8 927798096#9 927798096#10 927798098#1 927798098#2 927798098#3 927798098#4 927798098#5 927798098#6 927798098#7 927798098#8 927798098#9 927798098#10 927798098#11 927798098#12 927798098#13 303137273 303265565#0 303265565#4 303265565#6 303265565#7 303265565#8 608814649#2 608814649#3"/>
    </vehicle>
    <vehicle id="61" depart="61.00">
        <route edges="927798096#8 927798096#9 927798096#10 927798098#1 927798098#2 927798098#3 927798098#4 927798098#5 927798098#6 927798098#7 927798098#8 927798098#9 927798098#10 927798098#11 927798098#12 927798098#13 303137273 303265565#0 303265565#4 303265565#6 303265565#7 303265565#8 608814649#2"/>
    </vehicle>
    <vehicle id="62" depart="62.00">
        <route edges="124764479#0 124764479#1 54139756#0 54139756#1 54139756#2-AddedOnRampEdge 54139756#2 54139756#3 54139756#5 54139756#6-AddedOnRampEdge 54139756#6 54139756#6-AddedOffRampEdge 54139756#7 54139756#9 54139756#10-AddedOnRampEdge 54139756#10 54139756#10-AddedOffRampEdge 303137030 610344813#1-AddedOnRampEdge 610344813#1 303270079#1"/>
    </vehicle>
    <vehicle id="63" depart="63.00">
        <route edges="297396114#0 928691531#2 54139756#0 54139756#1 54139756#2-AddedOnRampEdge 54139756#2 303265561 303265562#0 303265562#1 303265560#1 303265560#2 303265560#3 928691516#0"/>
    </vehicle>
    <vehicle id="64" depart="64.00">
        <route edges="927798098#4 927798098#5 927798098#6 927798098#7 927798098#8 927798098#9 927798098#10 927798098#11 927798098#12 927798098#13 927798098#14 927798098#15"/>
    </vehicle>
    <vehicle id="65" depart="65.00">
        <route edges="303270073 927798096#4-AddedOnRampEdge 927798096#4 303270063 927798098#5 927798098#6 927798098#7 927798098#8 927798098#9 927798098#10 927798098#11 927798098#12 927798098#13 927798098#14 927798098#15 927798098#16 927798098#17 927798098#18 297396114#7 297396114#9"/>
    </vehicle>
    <vehicle id="66" depart="66.00">
        <route edges="927798098#4 927798098#5 927798098#6 927798098#7 927798098#8 927798098#9 927798098#10 927798098#11 927798098#12 927798098#13 927798098#14 927798098#15 927798098#16 927798098#17 303268062#0 303268062#1 932248828#7 932248828#8 928691532#0"/>
    </vehicle>
    <vehicle id="67" depart="67.00">
        <route edges="303137276#0 303137276#1 303137278#0 303137278#1 303137278#2 54139756#2-AddedOnRampEdge 54139756#2 54139756#3 54139756#5"/>
    </vehicle>
    <vehicle id="68" depart="68.00">
        <route edges="303137030 610344813#1-AddedOnRampEdge 610344813#1 303270079#1 927798096#10 927798098#1 927798098#2 927798098#3 927798098#4 927798098#5 927798098#6 927798098#7 927798098#8 927798098#9 303270073 927798096#4-AddedOnRampEdge 927798096#4 927798096#5 927798096#6"/>
    </vehicle>
    <vehicle id="69" depart="69.00">
        <route edges="927798096#6 927798096#7 927798096#8 927798096#9 927798096#10 927798098#1 927798098#2 927798098#3 927798098#4 927798098#5 927798098#6 927798098#7 927798098#8 927798098#9 927798098#10 927798098#11 927798098#12 927798098#13 303137273 303265565#0 303265565#4 303265560#1"/>
    </vehicle>
    <vehicle id="70" depart="70.00">
        <route edges="54139756#3 54139756#5 54139756#6-AddedOnRampEdge 54139756#6 54139756#6-AddedOffRampEdge 54139756#7 608814650#1"/>
    </vehicle>
    <vehicle id="71" depart="71.00">
        <route edges="303268062#1 932248828#7 932248828#8 928691532#0 297396114#3 297396114#4 297396114#7 927798096#0 927798096#1-AddedOnRampEdge 927798096#1 927798096#2 927798096#2-AddedOffRampEdge 927798096#3 927798096#4-AddedOnRampEdge 927798096#4 927798096#5 927798096#6 927798096#7 927798096#8 927798096#9 927798096#10 927798098#1 927798098#2 927798098#3"/>
    </vehicle>
    <vehicle id="72" depart="72.00">
        <route edges="54139756#0 54139756#1 54139756#2-AddedOnRampEdge 54139756#2 303265561 303265562#0 303265562#1 303265565#6 303265565#7 303265565#8"/>
    </vehicle>
    <vehicle id="73" depart="73.00">
        <route edges="608814649#4 53436221#3 53436221#5 928691530#0 297396114#3 297396114#4 297396114#7 927798096#0 927798096#1-AddedOnRampEdge 927798096#1 927798096#2 927798096#2-AddedOffRampEdge"/>
    </vehicle>
    <vehicle id="75" depart="75.00">
        <route edges="932248828#8 124764479#0 124764479#1 54139756#0 54139756#1 54139756#2-AddedOnRampEdge 54139756#2 54139756#3 54139756#5 54139756#6-AddedOnRampEdge 54139756#6 54139756#6-AddedOffRampEdge 54139756#7 54139756#9 54139756#10-AddedOnRampEdge 54139756#10 54139756#10-AddedOffRampEdge 303137030 610344813#1-AddedOnRampEdge 610344813#1 849995889#4 849995889#5"/>
    </vehicle>
    <vehicle id="76" depart="76.00">
        <route edges="54139756#10 54139756#10-AddedOffRampEdge 54139756#11 53436221#0 53436221#1-AddedOnRampEdge 53436221#1 53436221#3 54139756#5 54139756#6-AddedOnRampEdge 54139756#6 54139756#6-AddedOffRampEdge 54139756#7"/>
    </vehicle>
    <vehicle id="77" depart="77.00">
        <route edges="303265559 608814650#2 608814650#3 608814650#4 303265566#2"/>
    </vehicle>
    <vehicle id="78" depart="78.00">
        <route edges="303570986 932248828#1 932248828#2 932248828#4 932248828#6 932248828#7 932248828#8 124764479#0 124764479#1 54139756#0 303137276#0 303137276#1 609360791#0 609360791#1"/>
    </vehicle>
    <vehicle id="79" depart="79.00">
        <route edges="303265566#4 303265565#4 303265560#1 303265560#2 303265560#3 303265564 54139756#6-AddedOnRampEdge 54139756#6 54139756#6-AddedOffRampEdge 303265559 608814650#2 608814650#3 608814650#4 303265566#2"/>
    </vehicle>
    <vehicle id="81" depart="81.00">
        <route edges="303265566#4 303265566#5 609360791#0 609360791#1 609360791#2 927798098#15 927798098#16 927798098#17 927798098#18 297396114#7 927798096#0 927798096#1-AddedOnRampEdge 927798096#1 927798096#2 927798096#2-AddedOffRampEdge 927798096#3 927798096#4-AddedOnRampEdge 927798096#4 303270063 927798098#5 927798098#6 927798098#7 927798098#8"/>
    </vehicle>
    <vehicle id="83" depart="83.00">
        <route edges="303265566#5 303137278#0 303137278#1 303137278#2 54139756#2-AddedOnRampEdge 54139756#2 54139756#3 54139756#5 54139756#6-AddedOnRampEdge 54139756#6 54139756#6-AddedOffRampEdge 54139756#7 54139756#9 54139756#10-AddedOnRampEdge 54139756#10 54139756#10-AddedOffRampEdge 303137030 610344813#1-AddedOnRampEdge 610344813#1 849995889#4 849995889#5 849995889#6 849995889#7"/>
    </vehicle>
    <vehicle id="84" depart="84.00">
        <route edges="303265565#8 608814649#2 608814649#3 608814649#4 53436221#3 928691515#1 303265562#0 303265562#1 303265560#1"/>
    </vehicle>
    <vehicle id="85" depart="85.00">
        <route edges="928691530#0 928691531#2 54139756#0 54139756#1 54139756#2-AddedOnRampEdge 54139756#2 54139756#3 54139756#5 54139756#6-AddedOnRampEdge 54139756#6 54139756#6-AddedOffRampEdge 303265559 608814650#2 608814650#3 608814650#4"/>
    </vehicle>
    <vehicle id="86" depart="86.00">
        <route edges="54139756#2-AddedOnRampEdge 54139756#2 54139756#3 54139756#5 54139756#6-AddedOnRampEdge 54139756#6 54139756#6-AddedOffRampEdge 54139756#7 54139756#9 54139756#10-AddedOnRampEdge 54139756#10 54139756#10-AddedOffRampEdge 303137030 610344813#1-AddedOnRampEdge 610344813#1 303270079#1 927798096#10 303270062 927798096#8 927798096#9"/>
    </vehicle>
    <vehicle id="87" depart="87.00">
        <route edges="927798098#11 927798098#12 927798098#13 303137273 303265565#0 303265565#4"/>
    </vehicle>
    <vehicle id="88" depart="88.00">
        <route edges="303137276#1 609360791#0 609360791#1 609360791#2 927798098#15 927798098#16 927798098#17 303268062#0 303268062#1 932248828#7 932248828#8 124764479#0 124764479#1 54139756#0 54139756#1"/>
    </vehicle>
    <vehicle id="89" depart="89.00">
        <route edges="54139756#0 54139756#1 54139756#2-AddedOnRampEdge 54139756#2"/>
    </vehicle>
    <vehicle id="90" depart="90.00">
        <route edges="927798096#2-AddedOffRampEdge 927798096#3 927798096#4-AddedOnRampEdge 927798096#4 927798096#5 927798096#6 927798096#7 927798096#8 303270059#0 849995889#4 849995889#5 849995889#6 849995889#7 849995889#8"/>
    </vehicle>
    <vehicle id="91" depart="91.00">
        <route edges="932248828#6 932248828#7 932248828#8 124764479#0 124764479#1 54139756#0 303137276#0 303137276#1"/>
    </vehicle>
    <vehicle id="93" depart="93.00">
        <route edges="927798098#2 927798098#3 927798098#4 927798098#5 927798098#6 927798098#7 927798098#8 927798098#9 927798098#10 927798098#11 927798098#12 927798098#13 927798098#14 927798098#15 927798098#16 927798098#17 303268062#0 303268062#1 932248828#7 932248828#8 928691532#0 297396114#3 297396114#4 303268054#0 303268054#1"/>
    </vehicle>
    <vehicle id="94" depart="94.00">
        <route edges="303265565#0 303265565#4 303265560#1 303265560#2 303265560#3 303265564 54139756#6-AddedOnRampEdge 54139756#6 54139756#6-AddedOffRampEdge 54139756#7 54139756#9 54139756#10-AddedOnRampEdge 54139756#10 54139756#10-AddedOffRampEdge"/>
    </vehicle>
    <vehicle id="97" depart="97.00">
        <route edges="54139756#10-AddedOffRampEdge 303137030 610344813#1-AddedOnRampEdge 610344813#1 303270079#1 927798096#10 927798098#1 927798098#2"/>
    </vehicle>
    <vehicle id="98" depart="98.00">
        <route edges="608814650#1 608814650#2 608814650#3 608814650#4 303265566#2 303265566#4 303265566#5 609360791#0 609360791#1 609360791#2 927798098#15 927798098#16 927798098#17 927798098#18 297396114#7"/>
    </vehicle>
    <vehicle id="99" depart="99.00">
        <route edges="932248828#8 124764479#0 124764479#1 54139756#0 303137276#0 303137276#1 609360791#0 609360791#1 609360791#2 927798098#15"/>
    </vehicle>
    <vehicle id="100" depart="100.00">
        <route edges="932248828#2 932248828#4 932248828#6 932248828#7 932248828#8 124764479#0 124764479#1 54139756#0 54139756#1 54139756#2-AddedOnRampEdge 54139756#2 303265561 303265562#0 303265562#1 303265560#1 303265560#2 303265560#3 928691516#0"/>
    </vehicle>
    <vehicle id="101" depart="101.00">
        <route edges="927798098#17 303268062#0 303268062#1 932248828#7 932248828#8 124764479#0 124764479#1 54139756#0 54139756#1 54139756#2-AddedOnRampEdge 54139756#2 303265561 303265562#0 303265562#1"/>
    </vehicle>
    <vehicle id="102" depart="102.00">
        <route edges="54139756#5 54139756#6-AddedOnRampEdge 54139756#6 54139756#6-AddedOffRampEdge 54139756#7 53436221#3 928691515#1 303265562#0 303265562#1 303265565#6 303265565#7 303265565#8"/>
    </vehicle>
    <vehicle id="104" depart="104.00">
        <route edges="53436221#1-AddedOnRampEdge 53436221#1 53436221#3 53436221#5 928691530#0 297396114#3 297396114#4 297396114#7 932248828#4 932248828#6"/>
    </vehicle>
    <vehicle id="105" depart="105.00">
        <route edges="303268062#1 932248828#7 932248828#8 928691532#0 297396114#3 297396114#4 297396114#7 927798096#0 927798096#1-AddedOnRampEdge 927798096#1 927798096#2 927798096#2-AddedOffRampEdge 927798096#3 927798096#4-AddedOnRampEdge 927798096#4 927798096#5 927798096#6 927798096#7 927798096#8 927798096#9"/>
    </vehicle>
    <vehicle id="106" depart="106.00">
        <route edges="54139756#11 53436221#0 53436221#1-AddedOnRampEdge 53436221#1 53436221#3 53436221#5 928691530#0 928691531#2 54139756#0"/>
    </vehicle>
    <vehicle id="107" depart="107.00">
        <route edges="932248828#0 932248828#1 932248828#2 932248828#4 932248828#6 932248828#7 932248828#8"/>
    </vehicle>
    <vehicle id="108" depart="108.00">
        <route edges="608814650#2 608814650#3 608814650#4 303265566#2 303265566#4 303265566#5 609360791#0 609360791#1 609360791#2 927798098#15 927798098#16 927798098#17 927798098#18 297396114#7 927798096#0 927798096#1-AddedOnRampEdge 927798096#1 927798096#2"/>
    </vehicle>
    <vehicle id="109" depart="109.00">
        <route edges="303265561 303265562#0 303265562#1 303265566#4 303265566#5 609360791#0 609360791#1 609360791#2 927798098#15 927798098#16 927798098#17 927798098#18 297396114#7 927798096#0 927798096#1-AddedOnRampEdge 927798096#1 927798096#2 927798096#2-AddedOffRampEdge 927798096#3 927798096#4-AddedOnRampEdge 927798096#4 303270063"/>
    </vehicle>
    <vehicle id="110" depart="110.00">
        <route edges="932248828#2 932248828#4 932248828#6 932248828#7 932248828#8 124764479#0 124764479#1 54139756#0 303137276#0 303137276#1 609360791#0"/>
    </vehicle>
    <vehicle id="111" depart="111.00">
        <route edges="608814649#4 53436221#3 53436221#5 928691530#0 297396114#3 297396114#4 297396114#7 927798096#0 927798096#1-AddedOnRampEdge 927798096#1 927798096#2 927798096#2-AddedOffRampEdge 927798096#3 927798096#4-AddedOnRampEdge"/>
    </vehicle>
    <vehicle id="113" depart="113.00">
        <route edges="54139756#6-AddedOffRampEdge 54139756#7 53436221#3 53436221#5 928691530#0 928691531#2 54139756#0 303137276#0 303137276#1 609360791#0 609360791#1 609360791#2 927798098#15 927798098#16 927798098#17 927798098#18"/>
    </vehicle>
    <vehicle id="115" depart="115.00">
        <route edges="303137273 303265565#0"/>
    </vehicle>
    <vehicle id="116" depart="116.00">
        <route edges="609360791#2 927798098#15 927798098#16 927798098#17 927798098#18 297396114#7 927798096#0 927798096#1-AddedOnRampEdge 927798096#1 927798096#2 927798096#2-AddedOffRampEdge 927798096#3 927798096#4-AddedOnRampEdge 927798096#4 927798096#5 927798096#6 927798096#7 927798096#8 303270059#0 849995889#4 849995889#5 849995889#6 849995889#7 849995889#8"/>
    </vehicle>
    <vehicle id="117" depart="117.00">
        <route edges="303265566#5 303137278#0 303137278#1 303137278#2 54139756#2-AddedOnRampEdge 54139756#2 54139756#3 54139756#5 54139756#6-AddedOnRampEdge 54139756#6 54139756#6-AddedOffRampEdge 303265559"/>
    </vehicle>
    <vehicle id="118" depart="118.00">
        <route edges="927798098#6 927798098#7 927798098#8 927798098#9 927798098#10 927798098#11 927798098#12 927798098#13 927798098#14 927798098#15 927798098#16 927798098#17 303268062#0 303268062#1 932248828#7 932248828#8 928691532#0 297396114#3 297396114#4 303268054#0"/>
    </vehicle>
    <vehicle id="119" depart="119.00">
        <route edges="609360791#2 927798098#15 927798098#16 927798098#17 303268062#0 303268062#1 932248828#7 932248828#8 124764479#0 124764479#1 54139756#0 54139756#1 54139756#2-AddedOnRampEdge 54139756#2 54139756#3 54139756#5 54139756#6-AddedOnRampEdge 54139756#6 54139756#6-AddedOffRampEdge 54139756#7 54139756#9 54139756#10-AddedOnRampEdge 54139756#10 54139756#10-AddedOffRampEdge 303137030 610344813#1-AddedOnRampEdge"/>
    </vehicle>
    <vehicle id="120" depart="120.00">
        <route edges="54139756#0 303137276#0 303137276#1 609360791#0"/>
    </vehicle>
    <vehicle id="121" depart="121.00">
        <route edges="54139756#9 54139756#10-AddedOnRampEdge 54139756#10 54139756#10-AddedOffRampEdge 54139756#11 53436221#0 53436221#1-AddedOnRampEdge 53436221#1 53436221#3 53436221#5 928691530#0"/>
    </vehicle>
    <vehicle id="122" depart="122.00">
        <route edges="303265565#6 303265565#7 303265565#8 608814649#2 608814649#3 303265563 54139756#10-AddedOnRampEdge 54139756#10 54139756#10-AddedOffRampEdge 303137030 610344813#1-AddedOnRampEdge 610344813#1 303270079#1 927798096#10"/>
    </vehicle>
    <vehicle id="123" depart="123.00">